NOVO24/1726521/LineCodes.dss
! ==========================================================
! LINECODES — gerados de SEGCON
! R1/X1: dado da BDGD (ohm/km)
! R0/X0: PREMISSA — R0=3.0 x R1, X0=3.5 x X1
!        A BDGD nao traz sequencia zero. Ver README, secao "Limitacoes".
! normamps = CNOM (capacidade nominal), emergamps = CMAX
!
! COERENCIA R1 x CNOM: 4 condutores tiveram a resistencia substituida
! por estarem mais de 7.4x acima do previsto pelo ajuste calibrado nesta
! propria base (R1 = 508.6 x CNOM^-1.279, n=3566). Cada um esta
! marcado com "!! R1 CORRIGIDO" na sua linha. Ver README.
! ==========================================================

New LineCode.CND_20_3F nphases=3 basefreq=60 units=km r1=0.81000 x1=0.27000 r0=2.43000 x0=0.94500 normamps=141.0 emergamps=183.3
New LineCode.CND_4_3F nphases=3 basefreq=60 units=km r1=0.25000 x1=0.43000 r0=0.75000 x0=1.50500 normamps=456.0 emergamps=592.8
New LineCode.CND_461_3F nphases=3 basefreq=60 units=km r1=0.81000 x1=0.27000 r0=2.43000 x0=0.94500 normamps=141.0 emergamps=183.3
New LineCode.CND_647_3F nphases=3 basefreq=60 units=km r1=0.81000 x1=0.27000 r0=2.43000 x0=0.94500 normamps=141.0 emergamps=183.3
New LineCode.CND_77_3F nphases=3 basefreq=60 units=km r1=0.81000 x1=0.27000 r0=2.43000 x0=0.94500 normamps=141.0 emergamps=183.3
New LineCode.CND_910_1F nphases=1 basefreq=60 units=km r1=1.55000 x1=0.52000 r0=4.65000 x0=1.82000 normamps=152.0 emergamps=197.6
New LineCode.CND_911_1F nphases=1 basefreq=60 units=km r1=0.81000 x1=0.27000 r0=2.43000 x0=0.94500 normamps=141.0 emergamps=183.3
New LineCode.CND_913_1F nphases=1 basefreq=60 units=km r1=0.97000 x1=0.52000 r0=2.91000 x0=1.82000 normamps=204.0 emergamps=265.2
New LineCode.CND_923_1F nphases=1 basefreq=60 units=km r1=0.97000 x1=0.52000 r0=2.91000 x0=1.82000 normamps=204.0 emergamps=265.2
New LineCode.CND_10_3F nphases=3 basefreq=60 units=km r1=0.81000 x1=0.27000 r0=2.43000 x0=0.94500 normamps=141.0 emergamps=183.3
New LineCode.CND_11_3F nphases=3 basefreq=60 units=km r1=1.55000 x1=0.52000 r0=4.65000 x0=1.82000 normamps=152.0 emergamps=197.6
New LineCode.CND_13_3F nphases=3 basefreq=60 units=km r1=0.15000 x1=0.09000 r0=0.45000 x0=0.31500 normamps=250.0 emergamps=290.0
New LineCode.CND_19_3F nphases=3 basefreq=60 units=km r1=0.97000 x1=0.52000 r0=2.91000 x0=1.82000 normamps=204.0 emergamps=265.2
New LineCode.CND_25_3F nphases=3 basefreq=60 units=km r1=0.32000 x1=0.23000 r0=0.96000 x0=0.80500 normamps=238.0 emergamps=309.4
New LineCode.CND_28_3F nphases=3 basefreq=60 units=km r1=0.15000 x1=0.09000 r0=0.45000 x0=0.31500 normamps=250.0 emergamps=290.0
New LineCode.CND_50_3F nphases=3 basefreq=60 units=km r1=1.55000 x1=0.52000 r0=4.65000 x0=1.82000 normamps=152.0 emergamps=197.6
New LineCode.CND_51_3F nphases=3 basefreq=60 units=km r1=0.97000 x1=0.52000 r0=2.91000 x0=1.82000 normamps=204.0 emergamps=265.2
New LineCode.CND_61_3F nphases=3 basefreq=60 units=km r1=0.81000 x1=0.27000 r0=2.43000 x0=0.94500 normamps=141.0 emergamps=183.3
New LineCode.CND_115_3F nphases=3 basefreq=60 units=km r1=0.97000 x1=0.52000 r0=2.91000 x0=1.82000 normamps=204.0 emergamps=265.2
New LineCode.CND_220_3F nphases=3 basefreq=60 units=km r1=0.32000 x1=0.23000 r0=0.96000 x0=0.80500 normamps=238.0 emergamps=309.4
New LineCode.CND_258_3F nphases=3 basefreq=60 units=km r1=0.97000 x1=0.52000 r0=2.91000 x0=1.82000 normamps=204.0 emergamps=265.2
New LineCode.CND_281_3F nphases=3 basefreq=60 units=km r1=0.97000 x1=0.52000 r0=2.91000 x0=1.82000 normamps=204.0 emergamps=265.2
New LineCode.CND_367_3F nphases=3 basefreq=60 units=km r1=0.15000 x1=0.09000 r0=0.45000 x0=0.31500 normamps=250.0 emergamps=290.0
New LineCode.CND_405_3F nphases=3 basefreq=60 units=km r1=1.55000 x1=0.52000 r0=4.65000 x0=1.82000 normamps=152.0 emergamps=197.6
New LineCode.CND_456_3F nphases=3 basefreq=60 units=km r1=0.97000 x1=0.52000 r0=2.91000 x0=1.82000 normamps=204.0 emergamps=265.2
New LineCode.CND_515_3F nphases=3 basefreq=60 units=km r1=2.47000 x1=0.51000 r0=7.41000 x0=1.78500 normamps=113.0 emergamps=146.9
New LineCode.CND_551_3F nphases=3 basefreq=60 units=km r1=0.81000 x1=0.27000 r0=2.43000 x0=0.94500 normamps=141.0 emergamps=183.3
New LineCode.CND_902_1F nphases=1 basefreq=60 units=km r1=0.97000 x1=0.52000 r0=2.91000 x0=1.82000 normamps=204.0 emergamps=265.2
New LineCode.CND_907_1F nphases=1 basefreq=60 units=km r1=1.55000 x1=0.52000 r0=4.65000 x0=1.82000 normamps=152.0 emergamps=197.6
New LineCode.CND_909_1F nphases=1 basefreq=60 units=km r1=1.55000 x1=0.52000 r0=4.65000 x0=1.82000 normamps=152.0 emergamps=197.6
New LineCode.CND_915_1F nphases=1 basefreq=60 units=km r1=0.81000 x1=0.27000 r0=2.43000 x0=0.94500 normamps=141.0 emergamps=183.3
New LineCode.CND_926_1F nphases=1 basefreq=60 units=km r1=0.97000 x1=0.52000 r0=2.91000 x0=1.82000 normamps=204.0 emergamps=265.2
New LineCode.CND_946_1F nphases=1 basefreq=60 units=km r1=0.81000 x1=0.27000 r0=2.43000 x0=0.94500 normamps=141.0 emergamps=183.3
New LineCode.CND_990_1F nphases=1 basefreq=60 units=km r1=0.97000 x1=0.52000 r0=2.91000 x0=1.82000 normamps=204.0 emergamps=265.2
New LineCode.CND_1067_1F nphases=1 basefreq=60 units=km r1=0.93000 x1=0.26000 r0=2.79000 x0=0.91000 normamps=136.0 emergamps=176.8
New LineCode.CND_1209_1F nphases=1 basefreq=60 units=km r1=0.51000 x1=0.25000 r0=1.53000 x0=0.87500 normamps=180.0 emergamps=234.0
New LineCode.CND_1230_1F nphases=1 basefreq=60 units=km r1=0.51000 x1=0.25000 r0=1.53000 x0=0.87500 normamps=180.0 emergamps=234.0
New LineCode.CND_1297_3F nphases=3 basefreq=60 units=km r1=1.55000 x1=0.52000 r0=4.65000 x0=1.82000 normamps=152.0 emergamps=197.6

! condutor generico para trechos sem TIP_CND na base
